Circuit: * Z:\home\ill\git\Audio-2n3055\2n3055-amp-60w.asc

Direct Newton iteration for .op point succeeded.

Date: Wed Mar 26 21:43:40 2014
Total elapsed time: 2.240 seconds.

tnom = 27
temp = 27
method = modified trap
totiter = 65912
traniter = 65900
tranpoints = 23604
accept = 16975
rejected = 6629
matrix size = 42
fillins = 38
solver = Normal
Matrix Compiler1: 5.29 KB object code size  7.4/3.3/[2.6]
Matrix Compiler2: 4.35 KB object code size  2.8/2.9/[2.5]


